omf/solvers/opendss/voltsCompare__ieee240_ours___iowa240_LMS.clean.csv
, BasekV, Node1, Magnitude1, Angle1, pu1, Node2, Magnitude2, Angle2, pu2, Node3, Magnitude3, Angle3, pu3, Node4, Magnitude4, Angle4, pu4, Node5, Magnitude5, Angle5, pu5, Node6, Magnitude6, Angle6, pu6
Max %Err,100.0,0.0,0.0008250144377448758,0.0,100.0,0.0,0.0008250144377448758,0.0,100.0,0.0,0.0008240354664904123,0.0,100.0,0,0.00012354357567498993,0,100.0,0,0.0001230216579543809,0,100.0,0,0,0,100.0
Avg %Err,100.0,0.0,1.0567408955280826e-05,0.0,100.0,0.0,9.047301518948086e-06,0.0,70.18348623853211,0.0,8.761795704028774e-06,0.0,37.61467889908257,0.0,2.8335682494263743e-07,0.0,0.6880733944954128,0.0,2.8215976595041493e-07,0.0,0.6880733944954128,0.0,0.0,0.0,0.6880733944954128
Min %Err,100.0,0.0,0.0,0.0,100.0,0.0,0.0,0.0,0,0.0,0.0,0.0,0,0,0,0,0,0,0,0,0,0,0,0,0
,,,,,,,,,,,,,,,,,,,,,,,,,
Bus, BasekV, Node1, Magnitude1, Angle1, pu1, Node2, Magnitude2, Angle2, pu2, Node3, Magnitude3, Angle3, pu3, Node4, Magnitude4, Angle4, pu4, Node5, Magnitude5, Angle5, pu5, Node6, Magnitude6, Angle6, pu6
EQ_SOURCE_BUS,100.0,0.0,0.0,0.0,100.0,0.0,0.0,0.0,100.0,0.0,0.0,0.0,100.0,0,0,0,0,0,0,0,0,0,0,0,0
BUS1001,100.0,0.0,0.0,0.0,100.0,0.0,0.0,0.0,100.0,0.0,0.0,0.0,100.0,0,0,0,0,0,0,0,0,0,0,0,0
BUS1002,100.0,0.0,0.0,0.0,100.0,0.0,0.0,0.0,100.0,0.0,0.0,0.0,100.0,0,0,0,0,0,0,0,0,0,0,0,0
BUS1003,100.0,0.0,0.0,0.0,100.0,0.0,0.0,0.0,100.0,0.0,0.0,0.0,100.0,0,0,0,0,0,0,0,0,0,0,0,0
BUS1004,100.0,0.0,0.00012308374002521096,0.0,100.0,0.0,0.0,0.0,100.0,0.0,0.0,0.0,100.0,0,0,0,0,0,0,0,0,0,0,0,0
BUS1005,100.0,0.0,0.0,0.0,100.0,0.0,0.0,0.0,100.0,0.0,0.0,0.0,100.0,0,0,0,0,0,0,0,0,0,0,0,0
BUS1006,100.0,0.0,0.00012309086075245785,0.0,100.0,0.0,0.0,0.0,100.0,0.0,0.0,0.0,100.0,0,0,0,0,0,0,0,0,0,0,0,0
BUS1007,100.0,0.0,0.0,0.0,100.0,0.0,0.0,0.0,100.0,0,0,0,0,0,0,0,0,0,0,0,0,0,0,0,0
BUS1008,100.0,0.0,0.0,0.0,100.0,0.0,0.00012301787448866126,0.0,100.0,0.0,0.0,0.0,100.0,0,0,0,0,0,0,0,0,0,0,0,0
BUS1009,100.0,0.0,0.0,0.0,100.0,0.0,0.0,0.0,100.0,0.0,0.0,0.0,100.0,0,0,0,0,0,0,0,0,0,0,0,0
BUS1010,100.0,0.0,0.0,0.0,100.0,0.0,0.0001230216579543809,0.0,100.0,0.0,0.0,0.0,100.0,0.0,0.0,0.0,100.0,0.0,0.0001230216579543809,0.0,100.0,0.0,0.0,0.0,100.0
BUS1011,100.0,0.0,0.0,0.0,100.0,0.0,0.0,0.0,100.0,0.0,0.0,0.0,100.0,0,0,0,0,0,0,0,0,0,0,0,0
BUS1012,100.0,0.0,0.0,0.0,100.0,0.0,0.0,0.0,100.0,0.0,0.00012302059857170967,0.0,100.0,0,0,0,0,0,0,0,0,0,0,0,0
BUS1013,100.0,0.0,0.0,0.0,100.0,0.0,0.0,0.0,100.0,0.0,0.0,0.0,100.0,0,0,0,0,0,0,0,0,0,0,0,0
BUS1014,100.0,0.0,0.0,0.0,100.0,0,0,0,0,0,0,0,0,0,0,0,0,0,0,0,0,0,0,0,0
BUS1015,100.0,0.0,0.0,0.0,100.0,0,0,0,0,0,0,0,0,0,0,0,0,0,0,0,0,0,0,0,0
BUS1016,100.0,0.0,0.0,0.0,100.0,0,0,0,0,0,0,0,0,0,0,0,0,0,0,0,0,0,0,0,0
BUS1017,100.0,0.0,0.0,0.0,100.0,0,0,0,0,0,0,0,0,0,0,0,0,0,0,0,0,0,0,0,0
BUS2001,100.0,0.0,0.0,0.0,100.0,0.0,0.0,0.0,100.0,0.0,0.0,0.0,100.0,0,0,0,0,0,0,0,0,0,0,0,0
BUS2002,100.0,0.0,0.0,0.0,100.0,0.0,0.0,0.0,100.0,0.0,0.0,0.0,100.0,0,0,0,0,0,0,0,0,0,0,0,0
BUS2003,100.0,0.0,0.0,0.0,100.0,0.0,0.0,0.0,100.0,0.0,0.0,0.0,100.0,0,0,0,0,0,0,0,0,0,0,0,0
BUS2004,100.0,0.0,0.0,0.0,100.0,0.0,0.0,0.0,100.0,0.0,0.0,0.0,100.0,0,0,0,0,0,0,0,0,0,0,0,0
BUS2005,100.0,0.0,0.0,0.0,100.0,0.0,0.0,0.0,100.0,0.0,0.00012304845156097148,0.0,100.0,0,0,0,0,0,0,0,0,0,0,0,0
BUS2006,100.0,0.0,0.0,0.0,100.0,0.0,0.0,0.0,100.0,0.0,0.0,0.0,100.0,0,0,0,0,0,0,0,0,0,0,0,0
BUS2007,100.0,0.0,0.0,0.0,100.0,0,0,0,0,0,0,0,0,0,0,0,0,0,0,0,0,0,0,0,0
BUS2008,100.0,0.0,0.0,0.0,100.0,0,0,0,0,0,0,0,0,0,0,0,0,0,0,0,0,0,0,0,0
BUS2009,100.0,0.0,0.0,0.0,100.0,0,0,0,0,0,0,0,0,0,0,0,0,0,0,0,0,0,0,0,0
BUS2010,100.0,0.0,0.0,0.0,100.0,0.0,0.00012308767904910188,0.0,100.0,0.0,0.0,0.0,100.0,0,0,0,0,0,0,0,0,0,0,0,0
BUS2011,100.0,0.0,0.0,0.0,100.0,0.0,0.0,0.0,100.0,0.0,0.0,0.0,100.0,0,0,0,0,0,0,0,0,0,0,0,0
BUS2012,100.0,0.0,0.0,0.0,100.0,0.0,0.0,0.0,100.0,0.0,0.0,0.0,100.0,0,0,0,0,0,0,0,0,0,0,0,0
BUS2013,100.0,0.0,0.0,0.0,100.0,0.0,0.0,0.0,100.0,0.0,0.0,0.0,100.0,0.0,0.0,0.0,100.0,0.0,0.0,0.0,100.0,0.0,0.0,0.0,100.0
BUS2014,100.0,0.0,0.0,0.0,100.0,0.0,0.0,0.0,100.0,0.0,0.0,0.0,100.0,0,0,0,0,0,0,0,0,0,0,0,0
BUS2015,100.0,0.0,0.0,0.0,100.0,0,0,0,0,0,0,0,0,0,0,0,0,0,0,0,0,0,0,0,0
BUS2016,100.0,0.0,0.0,0.0,100.0,0.0,0.0,0.0,100.0,0.0,0.0,0.0,100.0,0,0,0,0,0,0,0,0,0,0,0,0
BUS2017,100.0,0.0,0.0,0.0,100.0,0.0,0.0,0.0,100.0,0.0,0.0,0.0,100.0,0,0,0,0,0,0,0,0,0,0,0,0
BUS2018,100.0,0.0,0.0,0.0,100.0,0.0,0.0,0.0,100.0,0.0,0.0,0.0,100.0,0,0,0,0,0,0,0,0,0,0,0,0
BUS2019,100.0,0.0,0.0,0.0,100.0,0.0,0.00012310631708024167,0.0,100.0,0.0,0.0,0.0,100.0,0,0,0,0,0,0,0,0,0,0,0,0
BUS2020,100.0,0.0,0.0001231076810602314,0.0,100.0,0,0,0,0,0,0,0,0,0,0,0,0,0,0,0,0,0,0,0,0
BUS2021,100.0,0.0,0.0,0.0,100.0,0.0,0.0,0.0,100.0,0.0,0.0,0.0,100.0,0,0,0,0,0,0,0,0,0,0,0,0
BUS2022,100.0,0.0,0.000123064503020111,0.0,100.0,0,0,0,0,0,0,0,0,0,0,0,0,0,0,0,0,0,0,0,0
BUS2023,100.0,0.0,0.0,0.0,100.0,0,0,0,0,0,0,0,0,0,0,0,0,0,0,0,0,0,0,0,0
BUS2024,100.0,0.0,0.0,0.0,100.0,0,0,0,0,0,0,0,0,0,0,0,0,0,0,0,0,0,0,0,0
BUS2025,100.0,0.0,0.0,0.0,100.0,0,0,0,0,0,0,0,0,0,0,0,0,0,0,0,0,0,0,0,0
BUS2026,100.0,0.0,0.0,0.0,100.0,0.0,0.0,0.0,100.0,0.0,0.0,0.0,100.0,0,0,0,0,0,0,0,0,0,0,0,0
BUS2027,100.0,0.0,0.0001231678778201537,0.0,100.0,0.0,0.0,0.0,100.0,0.0,0.0,0.0,100.0,0,0,0,0,0,0,0,0,0,0,0,0
BUS2028,100.0,0.0,0.0,0.0,100.0,0.0,0.0,0.0,100.0,0.0,0.0,0.0,100.0,0,0,0,0,0,0,0,0,0,0,0,0
BUS2029,100.0,0.0,0.0,0.0,100.0,0.0,0.0,0.0,100.0,0.0,0.0,0.0,100.0,0,0,0,0,0,0,0,0,0,0,0,0
BUS2030,100.0,0.0,0.0001231703051201684,0.0,100.0,0.0,0.0,0.0,100.0,0.0,0.0,0.0,100.0,0,0,0,0,0,0,0,0,0,0,0,0
BUS2031,100.0,0.0,0.0,0.0,100.0,0.0,0.0,0.0,100.0,0.0,0.0,0.0,100.0,0,0,0,0,0,0,0,0,0,0,0,0
BUS2032,100.0,0.0,0.0,0.0,100.0,0.0,0.00012311541085112488,0.0,100.0,0.0,0.0,0.0,100.0,0,0,0,0,0,0,0,0,0,0,0,0
BUS2033,100.0,0.0,0.0,0.0,100.0,0.0,0.0,0.0,100.0,0.0,0.0,0.0,100.0,0,0,0,0,0,0,0,0,0,0,0,0
BUS2034,100.0,0.0,0.0,0.0,100.0,0.0,0.0,0.0,100.0,0.0,0.0,0.0,100.0,0,0,0,0,0,0,0,0,0,0,0,0
BUS2035,100.0,0.0,0.0,0.0,100.0,0.0,0.00012312238365203495,0.0,100.0,0.0,0.0,0.0,100.0,0,0,0,0,0,0,0,0,0,0,0,0
BUS2036,100.0,0.0,0.0,0.0,100.0,0.0,0.0,0.0,100.0,0.0,0.0,0.0,100.0,0,0,0,0,0,0,0,0,0,0,0,0
BUS2037,100.0,0.0,0.0,0.0,100.0,0.0,0.0,0.0,100.0,0.0,0.0,0.0,100.0,0,0,0,0,0,0,0,0,0,0,0,0
BUS2038,100.0,0.0,0.0,0.0,100.0,0.0,0.0,0.0,100.0,0.0,0.0,0.0,100.0,0,0,0,0,0,0,0,0,0,0,0,0
BUS2039,100.0,0.0,0.0,0.0,100.0,0.0,0.0,0.0,100.0,0.0,0.0,0.0,100.0,0,0,0,0,0,0,0,0,0,0,0,0
BUS2040,100.0,0.0,0.0,0.0,100.0,0.0,0.0,0.0,100.0,0.0,0.0,0.0,100.0,0,0,0,0,0,0,0,0,0,0,0,0
BUS2041,100.0,0.0,0.0,0.0,100.0,0.0,0.0,0.0,100.0,0.0,0.0,0.0,100.0,0,0,0,0,0,0,0,0,0,0,0,0
BUS2042,100.0,0.0,0.0,0.0,100.0,0.0,0.0,0.0,100.0,0.0,0.0,0.0,100.0,0,0,0,0,0,0,0,0,0,0,0,0
BUS2043,100.0,0.0,0.0,0.0,100.0,0.0,0.0,0.0,100.0,0.0,0.00012309404262030632,0.0,100.0,0,0,0,0,0,0,0,0,0,0,0,0
BUS2044,100.0,0.0,0.0,0.0,100.0,0.0,0.0,0.0,100.0,0.0,0.00012309919455346117,0.0,100.0,0,0,0,0,0,0,0,0,0,0,0,0
BUS2045,100.0,0.0,0.0,0.0,100.0,0,0,0,0,0,0,0,0,0,0,0,0,0,0,0,0,0,0,0,0
BUS2046,100.0,0.0,0.00012316302349591818,0.0,100.0,0,0,0,0,0,0,0,0,0,0,0,0,0,0,0,0,0,0,0,0
BUS2047,100.0,0.0,0.0,0.0,100.0,0,0,0,0,0,0,0,0,0,0,0,0,0,0,0,0,0,0,0,0
BUS2048,100.0,0.0,0.0,0.0,100.0,0,0,0,0,0,0,0,0,0,0,0,0,0,0,0,0,0,0,0,0
BUS2049,100.0,0.0,0.0,0.0,100.0,0.0,0.0,0.0,100.0,0.0,0.0,0.0,100.0,0,0,0,0,0,0,0,0,0,0,0,0
BUS2050,100.0,0.0,0.0,0.0,100.0,0.0,0.0,0.0,100.0,0.0,0.0,0.0,100.0,0,0,0,0,0,0,0,0,0,0,0,0
BUS2051,100.0,0.0,0.0001232106730040275,0.0,100.0,0.0,0.0,0.0,100.0,0.0,0.0,0.0,100.0,0,0,0,0,0,0,0,0,0,0,0,0
BUS2052,100.0,0.0,0.0,0.0,100.0,0.0,0.00012316014143979475,0.0,100.0,0.0,0.0,0.0,100.0,0,0,0,0,0,0,0,0,0,0,0,0
BUS2053,100.0,0.0,0.0,0.0,100.0,0.0,0.0,0.0,100.0,0.0,0.00012310055837562393,0.0,100.0,0,0,0,0,0,0,0,0,0,0,0,0
BUS2054,100.0,0.0,0.0,0.0,100.0,0.0,0.0,0.0,100.0,0.0,0.0,0.0,100.0,0,0,0,0,0,0,0,0,0,0,0,0
BUS2055,100.0,0.0,0.0,0.0,100.0,0.0,0.0,0.0,100.0,0.0,0.0,0.0,100.0,0,0,0,0,0,0,0,0,0,0,0,0
BUS2056,100.0,0.0,0.0,0.0,100.0,0.0,0.0,0.0,100.0,0.0,0.0,0.0,100.0,0,0,0,0,0,0,0,0,0,0,0,0
BUS2057,100.0,0.0,0.0,0.0,100.0,0.0,0.0,0.0,100.0,0.0,0.0,0.0,100.0,0,0,0,0,0,0,0,0,0,0,0,0
BUS2058,100.0,0.0,0.0,0.0,100.0,0.0,0.0,0.0,100.0,0.0,0.0,0.0,100.0,0,0,0,0,0,0,0,0,0,0,0,0
BUS2059,100.0,0.0,0.0,0.0,100.0,0.0,0.0,0.0,100.0,0.0,0.0,0.0,100.0,0,0,0,0,0,0,0,0,0,0,0,0
BUS2060,100.0,0.0,0.0,0.0,100.0,0.0,0.0,0.0,100.0,0.0,0.0,0.0,100.0,0,0,0,0,0,0,0,0,0,0,0,0
BUS3001,100.0,0.0,0.0,0.0,100.0,0.0,0.0,0.0,100.0,0.0,0.0,0.0,100.0,0,0,0,0,0,0,0,0,0,0,0,0
BUS3003,100.0,0.0,0.0,0.0,100.0,0.0,0.0,0.0,100.0,0.0,0.0,0.0,100.0,0,0,0,0,0,0,0,0,0,0,0,0
BUS3002,100.0,0.0,0.0,0.0,100.0,0.0,0.000123068743741564,0.0,100.0,0.0,0.0,0.0,100.0,0,0,0,0,0,0,0,0,0,0,0,0
BUS3004,100.0,0.0,0.0,0.0,100.0,0.0,0.0,0.0,100.0,0.0,0.0,0.0,100.0,0,0,0,0,0,0,0,0,0,0,0,0
BUS3005,100.0,0.0,0.0,0.0,100.0,0.0,0.0,0.0,100.0,0.0,0.0,0.0,100.0,0,0,0,0,0,0,0,0,0,0,0,0
BUS3006,100.0,0.0,0.0,0.0,100.0,0.0,0.0,0.0,100.0,0.0,0.0,0.0,100.0,0,0,0,0,0,0,0,0,0,0,0,0
BUS3007,100.0,0.0,0.0,0.0,100.0,0.0,0.0,0.0,100.0,0.0,0.00012323997905189362,0.0,100.0,0,0,0,0,0,0,0,0,0,0,0,0
BUS3008,100.0,0.0,0.00012341351921324226,0.0,100.0,0.0,0.00012314815955344357,0.0,100.0,0.0,0.0,0.0,100.0,0,0,0,0,0,0,0,0,0,0,0,0
BUS3009,100.0,0.0,0.0,0.0,100.0,0,0,0,0,0,0,0,0,0,0,0,0,0,0,0,0,0,0,0,0
BUS3010,100.0,0.0,0.0,0.0,100.0,0,0,0,0,0,0,0,0,0,0,0,0,0,0,0,0,0,0,0,0
BUS3011,100.0,0.0,0.0,0.0,100.0,0,0,0,0,0,0,0,0,0,0,0,0,0,0,0,0,0,0,0,0
BUS3012,100.0,0.0,0.0,0.0,100.0,0,0,0,0,0,0,0,0,0,0,0,0,0,0,0,0,0,0,0,0
BUS3013,100.0,0.0,0.0,0.0,100.0,0,0,0,0,0,0,0,0,0,0,0,0,0,0,0,0,0,0,0,0
BUS3014,100.0,0.0,0.0,0.0,100.0,0,0,0,0,0,0,0,0,0,0,0,0,0,0,0,0,0,0,0,0
BUS3015,100.0,0.0,0.00012343118958312694,0.0,100.0,0.0,0.00012315801788634714,0.0,100.0,0.0,0.0,0.0,100.0,0,0,0,0,0,0,0,0,0,0,0,0
BUS3016,100.0,0.0,0.0001231598380609319,0.0,100.0,0,0,0,0,0,0,0,0,0,0,0,0,0,0,0,0,0,0,0,0
BUS3017,100.0,0.0,0.0,0.0,100.0,0,0,0,0,0,0,0,0,0,0,0,0,0,0,0,0,0,0,0,0
BUS3018,100.0,0.0,0.0,0.0,100.0,0,0,0,0,0,0,0,0,0,0,0,0,0,0,0,0,0,0,0,0
BUS3019,100.0,0.0,0.0,0.0,100.0,0,0,0,0,0,0,0,0,0,0,0,0,0,0,0,0,0,0,0,0
BUS3020,100.0,0.0,0.0,0.0,100.0,0,0,0,0,0,0,0,0,0,0,0,0,0,0,0,0,0,0,0,0
BUS3021,100.0,0.0,0.0,0.0,100.0,0,0,0,0,0,0,0,0,0,0,0,0,0,0,0,0,0,0,0,0
BUS3022,100.0,0.0,0.0,0.0,100.0,0.0,0.0,0.0,100.0,0.0,0.0,0.0,100.0,0,0,0,0,0,0,0,0,0,0,0,0
BUS3023,100.0,0.0,0.0,0.0,100.0,0,0,0,0,0,0,0,0,0,0,0,0,0,0,0,0,0,0,0,0
BUS3024,100.0,0.0,0.0,0.0,100.0,0,0,0,0,0,0,0,0,0,0,0,0,0,0,0,0,0,0,0,0
BUS3025,100.0,0.0,0.00012345297984899575,0.0,100.0,0,0,0,0,0,0,0,0,0,0,0,0,0,0,0,0,0,0,0,0
BUS3026,100.0,0.0,0.0,0.0,100.0,0,0,0,0,0,0,0,0,0,0,0,0,0,0,0,0,0,0,0,0
BUS3027,100.0,0.0,0.0,0.0,100.0,0,0,0,0,0,0,0,0,0,0,0,0,0,0,0,0,0,0,0,0
BUS3028,100.0,0.0,0.0,0.0,100.0,0,0,0,0,0,0,0,0,0,0,0,0,0,0,0,0,0,0,0,0
BUS3029,100.0,0.0,0.0,0.0,100.0,0,0,0,0,0,0,0,0,0,0,0,0,0,0,0,0,0,0,0,0
BUS3030,100.0,0.0,0.0,0.0,100.0,0.0,0.0,0.0,100.0,0.0,0.0,0.0,100.0,0,0,0,0,0,0,0,0,0,0,0,0
BUS3035,100.0,0.0,0.0,0.0,100.0,0.0,0.0,0.0,100.0,0.0,0.0,0.0,100.0,0,0,0,0,0,0,0,0,0,0,0,0
BUS3036,100.0,0.0,0.00012346273461696038,0.0,100.0,0.0,0.0,0.0,100.0,0.0,0.0001232981769158475,0.0,100.0,0,0,0,0,0,0,0,0,0,0,0,0
BUS3037,100.0,0.0,0.0,0.0,100.0,0.0,0.0,0.0,100.0,0.0,0.0,0.0,100.0,0,0,0,0,0,0,0,0,0,0,0,0
BUS3038,100.0,0.0,0.0,0.0,100.0,0.0,0.0,0.0,100.0,0.0,0.0,0.0,100.0,0,0,0,0,0,0,0,0,0,0,0,0
BUS3039,100.0,0.0,0.0,0.0,100.0,0.0,0.00012319245865314028,0.0,100.0,0.0,0.0,0.0,100.0,0,0,0,0,0,0,0,0,0,0,0,0
BUS3053,100.0,0.0,0.0,0.0,100.0,0.0,0.0,0.0,100.0,0.0,0.0,0.0,100.0,0,0,0,0,0,0,0,0,0,0,0,0
BUS3054,100.0,0.0,0.0,0.0,100.0,0.0,0.0,0.0,100.0,0.0,0.0,0.0,100.0,0,0,0,0,0,0,0,0,0,0,0,0
BUS3055,100.0,0.0,0.00012324332051161734,0.0,100.0,0,0,0,0,0,0,0,0,0,0,0,0,0,0,0,0,0,0,0,0
BUS3056,100.0,0.0,0.0,0.0,100.0,0,0,0,0,0,0,0,0,0,0,0,0,0,0,0,0,0,0,0,0
BUS3057,100.0,0.0,0.0,0.0,100.0,0,0,0,0,0,0,0,0,0,0,0,0,0,0,0,0,0,0,0,0
BUS3058,100.0,0.0,0.0,0.0,100.0,0,0,0,0,0,0,0,0,0,0,0,0,0,0,0,0,0,0,0,0
BUS3059,100.0,0.0,0.0,0.0,100.0,0,0,0,0,0,0,0,0,0,0,0,0,0,0,0,0,0,0,0,0
BUS3060,100.0,0.0,0.0,0.0,100.0,0,0,0,0,0,0,0,0,0,0,0,0,0,0,0,0,0,0,0,0
BUS3061,100.0,0.0,0.0,0.0,100.0,0,0,0,0,0,0,0,0,0,0,0,0,0,0,0,0,0,0,0,0
BUS3062,100.0,0.0,0.0,0.0,100.0,0,0,0,0,0,0,0,0,0,0,0,0,0,0,0,0,0,0,0,0
BUS3063,100.0,0.0,0.0,0.0,100.0,0,0,0,0,0,0,0,0,0,0,0,0,0,0,0,0,0,0,0,0
BUS3064,100.0,0.0,0.0,0.0,100.0,0,0,0,0,0,0,0,0,0,0,0,0,0,0,0,0,0,0,0,0
BUS3065,100.0,0.0,0.0,0.0,100.0,0,0,0,0,0,0,0,0,0,0,0,0,0,0,0,0,0,0,0,0
BUS3066,100.0,0.0,0.0,0.0,100.0,0,0,0,0,0,0,0,0,0,0,0,0,0,0,0,0,0,0,0,0
BUS3067,100.0,0.0,0.0,0.0,100.0,0,0,0,0,0,0,0,0,0,0,0,0,0,0,0,0,0,0,0,0
BUS3040,100.0,0.0,0.0,0.0,100.0,0.0,0.0,0.0,100.0,0.0,0.00012330425819194376,0.0,100.0,0,0,0,0,0,0,0,0,0,0,0,0
BUS3044,100.0,0.0,0.0,0.0,100.0,0,0,0,0,0,0,0,0,0,0,0,0,0,0,0,0,0,0,0,0
BUS3045,100.0,0.0,0.0,0.0,100.0,0,0,0,0,0,0,0,0,0,0,0,0,0,0,0,0,0,0,0,0
BUS3041,100.0,0.0,0.0,0.0,100.0,0,0,0,0,0,0,0,0,0,0,0,0,0,0,0,0,0,0,0,0
BUS3042,100.0,0.0,0.0,0.0,100.0,0,0,0,0,0,0,0,0,0,0,0,0,0,0,0,0,0,0,0,0
BUS3043,100.0,0.0,0.0,0.0,100.0,0,0,0,0,0,0,0,0,0,0,0,0,0,0,0,0,0,0,0,0
BUS3046,100.0,0.0,0.0,0.0,100.0,0.0,0.0,0.0,100.0,0.0,0.00012330501839363496,0.0,100.0,0,0,0,0,0,0,0,0,0,0,0,0
BUS3047,100.0,0.0,0.0,0.0,100.0,0.0,0.0,0.0,100.0,0.0,0.0,0.0,100.0,0,0,0,0,0,0,0,0,0,0,0,0
BUS3048,100.0,0.0,0.0,0.0,100.0,0.0,0.0,0.0,100.0,0.0,0.0,0.0,100.0,0,0,0,0,0,0,0,0,0,0,0,0
BUS3049,100.0,0.0,0.0,0.0,100.0,0.0,0.0,0.0,100.0,0.0,0.0001233054745079345,0.0,100.0,0,0,0,0,0,0,0,0,0,0,0,0
BUS3050,100.0,0.0,0.0,0.0,100.0,0.0,0.0,0.0,100.0,0.0,0.0,0.0,100.0,0,0,0,0,0,0,0,0,0,0,0,0
BUS3051,100.0,0.0,0.0,0.0,100.0,0.0,0.0,0.0,100.0,0.0,0.0,0.0,100.0,0,0,0,0,0,0,0,0,0,0,0,0
BUS3052,100.0,0.0,0.0,0.0,100.0,0.0,0.0,0.0,100.0,0.0,0.0,0.0,100.0,0,0,0,0,0,0,0,0,0,0,0,0
BUS3031,100.0,0.0,0.0,0.0,100.0,0.0,0.0,0.0,100.0,0.0,0.0,0.0,100.0,0,0,0,0,0,0,0,0,0,0,0,0
BUS3032,100.0,0.0,0.0,0.0,100.0,0.0,0.0,0.0,100.0,0.0,0.0,0.0,100.0,0,0,0,0,0,0,0,0,0,0,0,0
BUS3033,100.0,0.0,0.0,0.0,100.0,0.0,0.0,0.0,100.0,0.0,0.0,0.0,100.0,0,0,0,0,0,0,0,0,0,0,0,0
BUS3034,100.0,0.0,0.0,0.0,100.0,0.0,0.0,0.0,100.0,0.0,0.0,0.0,100.0,0,0,0,0,0,0,0,0,0,0,0,0
BUS3068,100.0,0.0,0.0,0.0,100.0,0.0,0.0,0.0,100.0,0.0,0.0,0.0,100.0,0,0,0,0,0,0,0,0,0,0,0,0
BUS3069,100.0,0.0,0.0,0.0,100.0,0.0,0.0,0.0,100.0,0.0,0.0,0.0,100.0,0,0,0,0,0,0,0,0,0,0,0,0
BUS3070,100.0,0.0,0.00012350970106093332,0.0,100.0,0.0,0.0,0.0,100.0,0.0,0.0,0.0,100.0,0,0,0,0,0,0,0,0,0,0,0,0
BUS3071,100.0,0.0,0.0,0.0,100.0,0.0,0.0,0.0,100.0,0.0,0.0,0.0,100.0,0,0,0,0,0,0,0,0,0,0,0,0
BUS3072,100.0,0.0,0.0,0.0,100.0,0.0,0.00012318456742887673,0.0,100.0,0.0,0.0,0.0,100.0,0,0,0,0,0,0,0,0,0,0,0,0
BUS3073,100.0,0.0,0.0,0.0,100.0,0.0,0.0,0.0,100.0,0.0,0.0,0.0,100.0,0,0,0,0,0,0,0,0,0,0,0,0
BUS3074,100.0,0.0,0.0,0.0,100.0,0.0,0.0,0.0,100.0,0.0,0.0,0.0,100.0,0,0,0,0,0,0,0,0,0,0,0,0
BUS3075,100.0,0.0,0.0,0.0,100.0,0.0,0.0,0.0,100.0,0.0,0.0,0.0,100.0,0,0,0,0,0,0,0,0,0,0,0,0
BUS3076,100.0,0.0,0.0,0.0,100.0,0.0,0.0,0.0,100.0,0.0,0.0,0.0,100.0,0,0,0,0,0,0,0,0,0,0,0,0
BUS3077,100.0,0.0,0.0,0.0,100.0,0.0,0.0,0.0,100.0,0.0,0.0,0.0,100.0,0,0,0,0,0,0,0,0,0,0,0,0
BUS3078,100.0,0.0,0.0,0.0,100.0,0.0,0.0,0.0,100.0,0.0,0.0,0.0,100.0,0,0,0,0,0,0,0,0,0,0,0,0
BUS3079,100.0,0.0,0.0,0.0,100.0,0.0,0.0,0.0,100.0,0.0,0.0,0.0,100.0,0,0,0,0,0,0,0,0,0,0,0,0
BUS3080,100.0,0.0,0.0,0.0,100.0,0.0,0.0,0.0,100.0,0.0,0.0,0.0,100.0,0,0,0,0,0,0,0,0,0,0,0,0
BUS3081,100.0,0.0,0.00012354357567498993,0.0,100.0,0.0,0.0,0.0,100.0,0.0,0.0,0.0,100.0,0.0,0.00012354357567498993,0.0,100.0,0.0,0.0,0.0,100.0,0.0,0.0,0.0,100.0
BUS3082,100.0,0.0,0.0,0.0,100.0,0.0,0.0,0.0,100.0,0.0,0.0,0.0,100.0,0,0,0,0,0,0,0,0,0,0,0,0
BUS3083,100.0,0.0,0.0,0.0,100.0,0,0,0,0,0,0,0,0,0,0,0,0,0,0,0,0,0,0,0,0
BUS3084,100.0,0.0,0.0,0.0,100.0,0,0,0,0,0,0,0,0,0,0,0,0,0,0,0,0,0,0,0,0
BUS3085,100.0,0.0,0.00012357991233510768,0.0,100.0,0,0,0,0,0,0,0,0,0,0,0,0,0,0,0,0,0,0,0,0
BUS3086,100.0,0.0,0.0,0.0,100.0,0,0,0,0,0,0,0,0,0,0,0,0,0,0,0,0,0,0,0,0
BUS3087,100.0,0.0,0.0,0.0,100.0,0,0,0,0,0,0,0,0,0,0,0,0,0,0,0,0,0,0,0,0
BUS3088,100.0,0.0,0.0,0.0,100.0,0,0,0,0,0,0,0,0,0,0,0,0,0,0,0,0,0,0,0,0
BUS3089,100.0,0.0,0.0,0.0,100.0,0,0,0,0,0,0,0,0,0,0,0,0,0,0,0,0,0,0,0,0
BUS3090,100.0,0.0,0.0,0.0,100.0,0,0,0,0,0,0,0,0,0,0,0,0,0,0,0,0,0,0,0,0
BUS3091,100.0,0.0,0.0,0.0,100.0,0,0,0,0,0,0,0,0,0,0,0,0,0,0,0,0,0,0,0,0
BUS3092,100.0,0.0,0.0,0.0,100.0,0.0,0.0,0.0,100.0,0.0,0.0,0.0,100.0,0,0,0,0,0,0,0,0,0,0,0,0
BUS3093,100.0,0.0,0.0,0.0,100.0,0,0,0,0,0,0,0,0,0,0,0,0,0,0,0,0,0,0,0,0
BUS3094,100.0,0.0,0.0,0.0,100.0,0,0,0,0,0,0,0,0,0,0,0,0,0,0,0,0,0,0,0,0
BUS3095,100.0,0.0,0.0,0.0,100.0,0,0,0,0,0,0,0,0,0,0,0,0,0,0,0,0,0,0,0,0
BUS3096,100.0,0.0,0.00012357594173281628,0.0,100.0,0,0,0,0,0,0,0,0,0,0,0,0,0,0,0,0,0,0,0,0
BUS3097,100.0,0.0,0.0,0.0,100.0,0,0,0,0,0,0,0,0,0,0,0,0,0,0,0,0,0,0,0,0
BUS3098,100.0,0.0,0.0,0.0,100.0,0,0,0,0,0,0,0,0,0,0,0,0,0,0,0,0,0,0,0,0
BUS3099,100.0,0.0,0.0,0.0,100.0,0,0,0,0,0,0,0,0,0,0,0,0,0,0,0,0,0,0,0,0
BUS3100,100.0,0.0,0.0,0.0,100.0,0.0,0.0,0.0,100.0,0.0,0.0,0.0,100.0,0,0,0,0,0,0,0,0,0,0,0,0
BUS3101,100.0,0.0,0.0,0.0,100.0,0,0,0,0,0,0,0,0,0,0,0,0,0,0,0,0,0,0,0,0
BUS3102,100.0,0.0,0.0,0.0,100.0,0,0,0,0,0,0,0,0,0,0,0,0,0,0,0,0,0,0,0,0
BUS3103,100.0,0.0,0.0,0.0,100.0,0,0,0,0,0,0,0,0,0,0,0,0,0,0,0,0,0,0,0,0
BUS3104,100.0,0.0,0.0,0.0,100.0,0,0,0,0,0,0,0,0,0,0,0,0,0,0,0,0,0,0,0,0
BUS3105,100.0,0.0,0.0,0.0,100.0,0,0,0,0,0,0,0,0,0,0,0,0,0,0,0,0,0,0,0,0
BUS3106,100.0,0.0,0.0,0.0,100.0,0,0,0,0,0,0,0,0,0,0,0,0,0,0,0,0,0,0,0,0
BUS3107,100.0,0.0,0.0,0.0,100.0,0.0,0.0,0.0,100.0,0.0,0.0,0.0,100.0,0,0,0,0,0,0,0,0,0,0,0,0
BUS3108,100.0,0.0,0.0,0.0,100.0,0,0,0,0,0,0,0,0,0,0,0,0,0,0,0,0,0,0,0,0
BUS3109,100.0,0.0,0.0001236242169865705,0.0,100.0,0,0,0,0,0,0,0,0,0,0,0,0,0,0,0,0,0,0,0,0
BUS3110,100.0,0.0,0.0,0.0,100.0,0,0,0,0,0,0,0,0,0,0,0,0,0,0,0,0,0,0,0,0
BUS3111,100.0,0.0,0.0,0.0,100.0,0,0,0,0,0,0,0,0,0,0,0,0,0,0,0,0,0,0,0,0
BUS3112,100.0,0.0,0.0,0.0,100.0,0,0,0,0,0,0,0,0,0,0,0,0,0,0,0,0,0,0,0,0
BUS3113,100.0,0.0,0.0,0.0,100.0,0,0,0,0,0,0,0,0,0,0,0,0,0,0,0,0,0,0,0,0
BUS3114,100.0,0.0,0.0,0.0,100.0,0,0,0,0,0,0,0,0,0,0,0,0,0,0,0,0,0,0,0,0
BUS3115,100.0,0.0,0.0,0.0,100.0,0,0,0,0,0,0,0,0,0,0,0,0,0,0,0,0,0,0,0,0
BUS3116,100.0,0.0,0.0,0.0,100.0,0,0,0,0,0,0,0,0,0,0,0,0,0,0,0,0,0,0,0,0
BUS3117,100.0,0.0,0.0,0.0,100.0,0,0,0,0,0,0,0,0,0,0,0,0,0,0,0,0,0,0,0,0
BUS3118,100.0,0.0,0.0,0.0,100.0,0.0,0.0,0.0,100.0,0.0,0.00012344596955351172,0.0,100.0,0,0,0,0,0,0,0,0,0,0,0,0
BUS3119,100.0,0.0,0.0,0.0,100.0,0,0,0,0,0,0,0,0,0,0,0,0,0,0,0,0,0,0,0,0
BUS3120,100.0,0.0,0.0,0.0,100.0,0,0,0,0,0,0,0,0,0,0,0,0,0,0,0,0,0,0,0,0
BUS3121,100.0,0.0,0.0,0.0,100.0,0,0,0,0,0,0,0,0,0,0,0,0,0,0,0,0,0,0,0,0
BUS3122,100.0,0.0,0.0,0.0,100.0,0,0,0,0,0,0,0,0,0,0,0,0,0,0,0,0,0,0,0,0
BUS3123,100.0,0.0,0.0,0.0,100.0,0,0,0,0,0,0,0,0,0,0,0,0,0,0,0,0,0,0,0,0
...
T_BUS1003_L,100.0,0.0,0.0,0.0,100.0,0.0,0.0,0.0,100.0,0.0,0.0,0.0,100.0,0,0,0,0,0,0,0,0,0,0,0,0
T_BUS1004_L,100.0,0.0,0.0,0.0,100.0,0.0,0.0,0.0,100.0,0.0,0.0,0.0,100.0,0,0,0,0,0,0,0,0,0,0,0,0
T_BUS1005_L,100.0,0.0,0.0,0.0,100.0,0.0,0.0,0.0,100.0,0.0,0.0,0.0,100.0,0,0,0,0,0,0,0,0,0,0,0,0
T_BUS1006_L,100.0,0.0,0.0,0.0,100.0,0.0,0.0,0.0,100.0,0,0,0,0,0,0,0,0,0,0,0,0,0,0,0,0
T_BUS1007_L,100.0,0.0,0.0,0.0,100.0,0.0,0.0,0.0,100.0,0,0,0,0,0,0,0,0,0,0,0,0,0,0,0,0
T_BUS1008_L,100.0,0.0,0.0,0.0,100.0,0.0,0.0,0.0,100.0,0.0,0.0,0.0,100.0,0,0,0,0,0,0,0,0,0,0,0,0
T_BUS1009_L,100.0,0.0,0.0,0.0,100.0,0.0,0.0,0.0,100.0,0.0,0.0,0.0,100.0,0,0,0,0,0,0,0,0,0,0,0,0
T_BUS1010_L,100.0,0.0,0.0,0.0,100.0,0.0,0.0,0.0,100.0,0.0,0.0,0.0,100.0,0,0,0,0,0,0,0,0,0,0,0,0
T_BUS1011_L,100.0,0.0,0.0,0.0,100.0,0.0,0.0,0.0,100.0,0,0,0,0,0,0,0,0,0,0,0,0,0,0,0,0
T_BUS1012_L,100.0,0.0,0.0,0.0,100.0,0.0,0.0,0.0,100.0,0,0,0,0,0,0,0,0,0,0,0,0,0,0,0,0
T_BUS1013_L,100.0,0.0,0.0,0.0,100.0,0.0,0.0,0.0,100.0,0.0,0.0,0.0,100.0,0,0,0,0,0,0,0,0,0,0,0,0
T_BUS1014_L,100.0,0.0,0.0,0.0,100.0,0.0,0.0,0.0,100.0,0,0,0,0,0,0,0,0,0,0,0,0,0,0,0,0
T_BUS1015_L,100.0,0.0,0.0,0.0,100.0,0.0,0.0,0.0,100.0,0,0,0,0,0,0,0,0,0,0,0,0,0,0,0,0
T_BUS1016_L,100.0,0.0,0.0,0.0,100.0,0.0,0.0,0.0,100.0,0,0,0,0,0,0,0,0,0,0,0,0,0,0,0,0
T_BUS1017_L,100.0,0.0,0.0,0.0,100.0,0.0,0.0,0.0,100.0,0,0,0,0,0,0,0,0,0,0,0,0,0,0,0,0
T_BUS2002_L,100.0,0.0,0.0,0.0,100.0,0.0,0.0,0.0,100.0,0.0,0.0,0.0,100.0,0,0,0,0,0,0,0,0,0,0,0,0
T_BUS2003_L,100.0,0.0,0.0,0.0,100.0,0.0,0.0008205666833554406,0.0,100.0,0.0,0.0,0.0,100.0,0,0,0,0,0,0,0,0,0,0,0,0
T_BUS2005_L,100.0,0.0,0.0,0.0,100.0,0.0,0.0,0.0,100.0,0.0,0.0,0.0,100.0,0,0,0,0,0,0,0,0,0,0,0,0
T_BUS2008_L,100.0,0.0,0.0,0.0,100.0,0.0,0.0,0.0,100.0,0,0,0,0,0,0,0,0,0,0,0,0,0,0,0,0
T_BUS2009_L,100.0,0.0,0.0,0.0,100.0,0.0,0.0,0.0,100.0,0,0,0,0,0,0,0,0,0,0,0,0,0,0,0,0
T_BUS2010_L,100.0,0.0,0.0,0.0,100.0,0.0,0.0,0.0,100.0,0.0,0.0,0.0,100.0,0,0,0,0,0,0,0,0,0,0,0,0
T_BUS2011_L,100.0,0.0,0.0,0.0,100.0,0.0,0.0,0.0,100.0,0.0,0.0,0.0,100.0,0,0,0,0,0,0,0,0,0,0,0,0
T_BUS2014_L,100.0,0.0,0.0,0.0,100.0,0.0,0.0,0.0,100.0,0,0,0,0,0,0,0,0,0,0,0,0,0,0,0,0
T_BUS2015_L,100.0,0.0,0.0,0.0,100.0,0.0,0.0,0.0,100.0,0,0,0,0,0,0,0,0,0,0,0,0,0,0,0,0
T_BUS2016_L,100.0,0.0,0.0,0.0,100.0,0.0,0.0,0.0,100.0,0,0,0,0,0,0,0,0,0,0,0,0,0,0,0,0
T_BUS2017_L,100.0,0.0,0.0,0.0,100.0,0.0,0.0,0.0,100.0,0,0,0,0,0,0,0,0,0,0,0,0,0,0,0,0
T_BUS2018_L,100.0,0.0,0.0,0.0,100.0,0.0,0.0,0.0,100.0,0,0,0,0,0,0,0,0,0,0,0,0,0,0,0,0
T_BUS2020_L,100.0,0.0,0.0,0.0,100.0,0.0,0.0,0.0,100.0,0,0,0,0,0,0,0,0,0,0,0,0,0,0,0,0
T_BUS2022_L,100.0,0.0,0.0,0.0,100.0,0.0,0.0,0.0,100.0,0,0,0,0,0,0,0,0,0,0,0,0,0,0,0,0
T_BUS2023_L,100.0,0.0,0.0,0.0,100.0,0.0,0.0,0.0,100.0,0,0,0,0,0,0,0,0,0,0,0,0,0,0,0,0
T_BUS2024_L,100.0,0.0,0.0,0.0,100.0,0.0,0.0,0.0,100.0,0,0,0,0,0,0,0,0,0,0,0,0,0,0,0,0
T_BUS2025_L,100.0,0.0,0.0,0.0,100.0,0.0,0.0,0.0,100.0,0,0,0,0,0,0,0,0,0,0,0,0,0,0,0,0
T_BUS2028_L,100.0,0.0,0.0,0.0,100.0,0.0,0.0,0.0,100.0,0,0,0,0,0,0,0,0,0,0,0,0,0,0,0,0
T_BUS2029_L,100.0,0.0,0.0,0.0,100.0,0.0,0.0,0.0,100.0,0.0,0.0,0.0,100.0,0,0,0,0,0,0,0,0,0,0,0,0
T_BUS2030_L,100.0,0.0,0.0,0.0,100.0,0.0,0.0,0.0,100.0,0.0,0.0,0.0,100.0,0,0,0,0,0,0,0,0,0,0,0,0
T_BUS2031_L,100.0,0.0,0.0,0.0,100.0,0.0,0.0,0.0,100.0,0,0,0,0,0,0,0,0,0,0,0,0,0,0,0,0
T_BUS2032_L,100.0,0.0,0.0,0.0,100.0,0.0,0.0,0.0,100.0,0.0,0.0,0.0,100.0,0,0,0,0,0,0,0,0,0,0,0,0
T_BUS2034_L,100.0,0.0,0.0,0.0,100.0,0.0,0.0,0.0,100.0,0.0,0.0,0.0,100.0,0,0,0,0,0,0,0,0,0,0,0,0
T_BUS2035_L,100.0,0.0,0.0,0.0,100.0,0.0,0.0,0.0,100.0,0.0,0.0,0.0,100.0,0,0,0,0,0,0,0,0,0,0,0,0
T_BUS2037_L,100.0,0.0,0.0,0.0,100.0,0.0,0.0,0.0,100.0,0.0,0.0,0.0,100.0,0,0,0,0,0,0,0,0,0,0,0,0
T_BUS2040_L,100.0,0.0,0.0,0.0,100.0,0.0,0.0,0.0,100.0,0.0,0.0,0.0,100.0,0,0,0,0,0,0,0,0,0,0,0,0
T_BUS2041_L,100.0,0.0,0.0,0.0,100.0,0.0,0.0,0.0,100.0,0.0,0.0,0.0,100.0,0,0,0,0,0,0,0,0,0,0,0,0
T_BUS2042_L,100.0,0.0,0.0,0.0,100.0,0.0,0.0,0.0,100.0,0.0,0.0,0.0,100.0,0,0,0,0,0,0,0,0,0,0,0,0
T_BUS2043_L,100.0,0.0,0.0,0.0,100.0,0.0,0.0,0.0,100.0,0.0,0.0,0.0,100.0,0,0,0,0,0,0,0,0,0,0,0,0
T_BUS2045_L,100.0,0.0,0.0,0.0,100.0,0.0,0.0,0.0,100.0,0,0,0,0,0,0,0,0,0,0,0,0,0,0,0,0
T_BUS2046_L,100.0,0.0,0.0,0.0,100.0,0.0,0.0,0.0,100.0,0,0,0,0,0,0,0,0,0,0,0,0,0,0,0,0
T_BUS2047_L,100.0,0.0,0.0,0.0,100.0,0.0,0.0,0.0,100.0,0,0,0,0,0,0,0,0,0,0,0,0,0,0,0,0
T_BUS2048_L,100.0,0.0,0.0,0.0,100.0,0.0,0.0,0.0,100.0,0,0,0,0,0,0,0,0,0,0,0,0,0,0,0,0
T_BUS2049_L,100.0,0.0,0.0,0.0,100.0,0.0,0.0,0.0,100.0,0,0,0,0,0,0,0,0,0,0,0,0,0,0,0,0
T_BUS2050_L,100.0,0.0,0.0,0.0,100.0,0.0,0.0,0.0,100.0,0,0,0,0,0,0,0,0,0,0,0,0,0,0,0,0
T_BUS2051_L,100.0,0.0,0.0,0.0,100.0,0.0,0.0,0.0,100.0,0,0,0,0,0,0,0,0,0,0,0,0,0,0,0,0
T_BUS2052_L,100.0,0.0,0.0,0.0,100.0,0.0,0.0,0.0,100.0,0.0,0.0,0.0,100.0,0,0,0,0,0,0,0,0,0,0,0,0
T_BUS2053_L,100.0,0.0,0.0,0.0,100.0,0.0,0.0,0.0,100.0,0.0,0.0,0.0,100.0,0,0,0,0,0,0,0,0,0,0,0,0
T_BUS2054_L,100.0,0.0,0.0,0.0,100.0,0.0,0.0,0.0,100.0,0,0,0,0,0,0,0,0,0,0,0,0,0,0,0,0
T_BUS2055_L,100.0,0.0,0.0,0.0,100.0,0.0,0.0,0.0,100.0,0,0,0,0,0,0,0,0,0,0,0,0,0,0,0,0
T_BUS2056_L,100.0,0.0,0.0,0.0,100.0,0.0,0.0,0.0,100.0,0,0,0,0,0,0,0,0,0,0,0,0,0,0,0,0
T_BUS2058_L,100.0,0.0,0.0,0.0,100.0,0.0,0.0,0.0,100.0,0.0,0.0,0.0,100.0,0,0,0,0,0,0,0,0,0,0,0,0
T_BUS2059_L,100.0,0.0,0.0,0.0,100.0,0.0,0.0,0.0,100.0,0,0,0,0,0,0,0,0,0,0,0,0,0,0,0,0
T_BUS2060_L,100.0,0.0,0.0,0.0,100.0,0.0,0.0,0.0,100.0,0,0,0,0,0,0,0,0,0,0,0,0,0,0,0,0
T_BUS3002_L,100.0,0.0,0.0,0.0,100.0,0.0,0.0,0.0,100.0,0.0,0.0,0.0,100.0,0,0,0,0,0,0,0,0,0,0,0,0
T_BUS3004_L,100.0,0.0,0.0,0.0,100.0,0.0,0.0,0.0,100.0,0.0,0.0,0.0,100.0,0,0,0,0,0,0,0,0,0,0,0,0
T_BUS3006_L,100.0,0.0,0.0,0.0,100.0,0.0,0.0,0.0,100.0,0.0,0.0,0.0,100.0,0,0,0,0,0,0,0,0,0,0,0,0
T_BUS3007_L,100.0,0.0,0.0,0.0,100.0,0.0,0.0,0.0,100.0,0.0,0.0,0.0,100.0,0,0,0,0,0,0,0,0,0,0,0,0
T_BUS3009_L,100.0,0.0,0.0,0.0,100.0,0.0,0.0,0.0,100.0,0,0,0,0,0,0,0,0,0,0,0,0,0,0,0,0
T_BUS3010_L,100.0,0.0,0.0,0.0,100.0,0.0,0.0,0.0,100.0,0,0,0,0,0,0,0,0,0,0,0,0,0,0,0,0
T_BUS3011_L,100.0,0.0,0.0,0.0,100.0,0.0,0.0,0.0,100.0,0,0,0,0,0,0,0,0,0,0,0,0,0,0,0,0
T_BUS3012_L,100.0,0.0,0.0,0.0,100.0,0.0,0.0,0.0,100.0,0,0,0,0,0,0,0,0,0,0,0,0,0,0,0,0
T_BUS3013_L,100.0,0.0,0.0,0.0,100.0,0.0,0.0,0.0,100.0,0,0,0,0,0,0,0,0,0,0,0,0,0,0,0,0
T_BUS3014_L,100.0,0.0,0.0,0.0,100.0,0.0,0.0,0.0,100.0,0,0,0,0,0,0,0,0,0,0,0,0,0,0,0,0
T_BUS3016_L,100.0,0.0,0.0,0.0,100.0,0.0,0.0,0.0,100.0,0,0,0,0,0,0,0,0,0,0,0,0,0,0,0,0
T_BUS3017_L,100.0,0.0,0.0,0.0,100.0,0.0,0.0,0.0,100.0,0,0,0,0,0,0,0,0,0,0,0,0,0,0,0,0
T_BUS3018_L,100.0,0.0,0.0,0.0,100.0,0.0,0.0,0.0,100.0,0,0,0,0,0,0,0,0,0,0,0,0,0,0,0,0
T_BUS3019_L,100.0,0.0,0.0,0.0,100.0,0.0,0.0,0.0,100.0,0,0,0,0,0,0,0,0,0,0,0,0,0,0,0,0
T_BUS3020_L,100.0,0.0,0.0,0.0,100.0,0.0,0.0,0.0,100.0,0,0,0,0,0,0,0,0,0,0,0,0,0,0,0,0
T_BUS3021_L,100.0,0.0,0.0,0.0,100.0,0.0,0.0,0.0,100.0,0,0,0,0,0,0,0,0,0,0,0,0,0,0,0,0
T_BUS3023_L,100.0,0.0,0.0,0.0,100.0,0.0,0.0,0.0,100.0,0,0,0,0,0,0,0,0,0,0,0,0,0,0,0,0
T_BUS3024_L,100.0,0.0,0.0,0.0,100.0,0.0,0.0,0.0,100.0,0,0,0,0,0,0,0,0,0,0,0,0,0,0,0,0
T_BUS3025_L,100.0,0.0,0.0,0.0,100.0,0.0,0.0,0.0,100.0,0,0,0,0,0,0,0,0,0,0,0,0,0,0,0,0
T_BUS3026_L,100.0,0.0,0.0,0.0,100.0,0.0,0.0,0.0,100.0,0,0,0,0,0,0,0,0,0,0,0,0,0,0,0,0
T_BUS3027_L,100.0,0.0,0.0,0.0,100.0,0.0,0.0,0.0,100.0,0,0,0,0,0,0,0,0,0,0,0,0,0,0,0,0
T_BUS3028_L,100.0,0.0,0.0,0.0,100.0,0.0,0.0,0.0,100.0,0,0,0,0,0,0,0,0,0,0,0,0,0,0,0,0
T_BUS3029_L,100.0,0.0,0.0,0.0,100.0,0.0,0.0,0.0,100.0,0,0,0,0,0,0,0,0,0,0,0,0,0,0,0,0
T_BUS3031_L,100.0,0.0,0.0,0.0,100.0,0.0,0.0,0.0,100.0,0.0,0.0,0.0,100.0,0,0,0,0,0,0,0,0,0,0,0,0
T_BUS3032_L,100.0,0.0,0.0,0.0,100.0,0.0,0.0,0.0,100.0,0.0,0.0,0.0,100.0,0,0,0,0,0,0,0,0,0,0,0,0
T_BUS3033_L,100.0,0.0,0.0,0.0,100.0,0.0,0.0,0.0,100.0,0.0,0.0,0.0,100.0,0,0,0,0,0,0,0,0,0,0,0,0
T_BUS3034_L,100.0,0.0,0.0,0.0,100.0,0.0,0.0,0.0,100.0,0.0,0.0,0.0,100.0,0,0,0,0,0,0,0,0,0,0,0,0
T_BUS3035_L,100.0,0.0,0.0,0.0,100.0,0.0,0.0,0.0,100.0,0.0,0.0008240354664904123,0.0,100.0,0,0,0,0,0,0,0,0,0,0,0,0
T_BUS3036_L,100.0,0.0,0.0,0.0,100.0,0.0,0.0,0.0,100.0,0.0,0.0,0.0,100.0,0,0,0,0,0,0,0,0,0,0,0,0
T_BUS3037_L,100.0,0.0,0.0,0.0,100.0,0.0,0.0,0.0,100.0,0.0,0.0,0.0,100.0,0,0,0,0,0,0,0,0,0,0,0,0
T_BUS3038_L,100.0,0.0,0.0,0.0,100.0,0.0,0.0,0.0,100.0,0.0,0.0008212945244333271,0.0,100.0,0,0,0,0,0,0,0,0,0,0,0,0
T_BUS3039_L,100.0,0.0,0.0,0.0,100.0,0.0,0.0,0.0,100.0,0.0,0.0,0.0,100.0,0,0,0,0,0,0,0,0,0,0,0,0
T_BUS3041_L,100.0,0.0,0.0,0.0,100.0,0.0,0.0,0.0,100.0,0,0,0,0,0,0,0,0,0,0,0,0,0,0,0,0
T_BUS3042_L,100.0,0.0,0.0,0.0,100.0,0.0,0.0,0.0,100.0,0,0,0,0,0,0,0,0,0,0,0,0,0,0,0,0
T_BUS3043_L,100.0,0.0,0.0,0.0,100.0,0.0,0.0,0.0,100.0,0,0,0,0,0,0,0,0,0,0,0,0,0,0,0,0
T_BUS3044_L,100.0,0.0,0.0,0.0,100.0,0.0,0.0,0.0,100.0,0,0,0,0,0,0,0,0,0,0,0,0,0,0,0,0
T_BUS3045_L,100.0,0.0,0.0,0.0,100.0,0.0,0.0,0.0,100.0,0,0,0,0,0,0,0,0,0,0,0,0,0,0,0,0
T_BUS3047_L,100.0,0.0,0.0,0.0,100.0,0.0,0.0,0.0,100.0,0.0,0.0,0.0,100.0,0,0,0,0,0,0,0,0,0,0,0,0
T_BUS3048_L,100.0,0.0,0.0,0.0,100.0,0.0,0.0,0.0,100.0,0.0,0.0,0.0,100.0,0,0,0,0,0,0,0,0,0,0,0,0
T_BUS3049_L,100.0,0.0,0.0,0.0,100.0,0.0,0.0,0.0,100.0,0.0,0.0,0.0,100.0,0,0,0,0,0,0,0,0,0,0,0,0
T_BUS3050_L,100.0,0.0,0.0,0.0,100.0,0.0,0.0,0.0,100.0,0.0,0.0,0.0,100.0,0,0,0,0,0,0,0,0,0,0,0,0
T_BUS3051_L,100.0,0.0,0.0,0.0,100.0,0.0,0.0,0.0,100.0,0.0,0.0,0.0,100.0,0,0,0,0,0,0,0,0,0,0,0,0
T_BUS3052_L,100.0,0.0,0.0,0.0,100.0,0.0,0.0,0.0,100.0,0.0,0.0,0.0,100.0,0,0,0,0,0,0,0,0,0,0,0,0
T_BUS3054_L,100.0,0.0,0.0,0.0,100.0,0.0,0.0,0.0,100.0,0.0,0.0,0.0,100.0,0,0,0,0,0,0,0,0,0,0,0,0
T_BUS3056_L,100.0,0.0,0.0,0.0,100.0,0.0,0.0,0.0,100.0,0,0,0,0,0,0,0,0,0,0,0,0,0,0,0,0
T_BUS3057_L,100.0,0.0,0.0,0.0,100.0,0.0,0.0,0.0,100.0,0,0,0,0,0,0,0,0,0,0,0,0,0,0,0,0
T_BUS3058_L,100.0,0.0,0.0,0.0,100.0,0.0,0.0,0.0,100.0,0,0,0,0,0,0,0,0,0,0,0,0,0,0,0,0
T_BUS3059_L,100.0,0.0,0.0,0.0,100.0,0.0,0.0,0.0,100.0,0,0,0,0,0,0,0,0,0,0,0,0,0,0,0,0
T_BUS3060_L,100.0,0.0,0.0,0.0,100.0,0.0,0.0,0.0,100.0,0,0,0,0,0,0,0,0,0,0,0,0,0,0,0,0
T_BUS3061_L,100.0,0.0,0.0,0.0,100.0,0.0,0.0,0.0,100.0,0,0,0,0,0,0,0,0,0,0,0,0,0,0,0,0
T_BUS3062_L,100.0,0.0,0.0,0.0,100.0,0.0,0.0,0.0,100.0,0,0,0,0,0,0,0,0,0,0,0,0,0,0,0,0
T_BUS3063_L,100.0,0.0,0.0,0.0,100.0,0.0,0.0,0.0,100.0,0,0,0,0,0,0,0,0,0,0,0,0,0,0,0,0
T_BUS3064_L,100.0,0.0,0.0,0.0,100.0,0.0,0.0,0.0,100.0,0,0,0,0,0,0,0,0,0,0,0,0,0,0,0,0
T_BUS3065_L,100.0,0.0,0.0,0.0,100.0,0.0,0.0,0.0,100.0,0,0,0,0,0,0,0,0,0,0,0,0,0,0,0,0
T_BUS3066_L,100.0,0.0,0.0,0.0,100.0,0.0,0.0,0.0,100.0,0,0,0,0,0,0,0,0,0,0,0,0,0,0,0,0
T_BUS3067_L,100.0,0.0,0.0,0.0,100.0,0.0,0.0,0.0,100.0,0,0,0,0,0,0,0,0,0,0,0,0,0,0,0,0
T_BUS3070_L,100.0,0.0,0.0,0.0,100.0,0.0,0.0,0.0,100.0,0.0,0.0,0.0,100.0,0,0,0,0,0,0,0,0,0,0,0,0
T_BUS3071_L,100.0,0.0,0.0,0.0,100.0,0.0,0.0,0.0,100.0,0.0,0.0,0.0,100.0,0,0,0,0,0,0,0,0,0,0,0,0
T_BUS3072_L,100.0,0.0,0.0,0.0,100.0,0.0,0.0,0.0,100.0,0.0,0.0,0.0,100.0,0,0,0,0,0,0,0,0,0,0,0,0
T_BUS3073_L,100.0,0.0,0.0,0.0,100.0,0.0,0.0,0.0,100.0,0.0,0.0,0.0,100.0,0,0,0,0,0,0,0,0,0,0,0,0
T_BUS3074_L,100.0,0.0,0.0,0.0,100.0,0.0,0.0,0.0,100.0,0.0,0.0,0.0,100.0,0,0,0,0,0,0,0,0,0,0,0,0
T_BUS3077_L,100.0,0.0,0.0,0.0,100.0,0.0,0.0,0.0,100.0,0.0,0.0,0.0,100.0,0,0,0,0,0,0,0,0,0,0,0,0
T_BUS3078_L,100.0,0.0,0.0,0.0,100.0,0.0,0.0,0.0,100.0,0.0,0.0,0.0,100.0,0,0,0,0,0,0,0,0,0,0,0,0
T_BUS3081_L,100.0,0.0,0.0,0.0,100.0,0.0,0.0,0.0,100.0,0.0,0.0008195512137359678,0.0,100.0,0,0,0,0,0,0,0,0,0,0,0,0
T_BUS3083_L,100.0,0.0,0.0,0.0,100.0,0.0,0.0,0.0,100.0,0,0,0,0,0,0,0,0,0,0,0,0,0,0,0,0
T_BUS3084_L,100.0,0.0,0.0,0.0,100.0,0.0,0.0,0.0,100.0,0,0,0,0,0,0,0,0,0,0,0,0,0,0,0,0
...